*Heading
** Job name: Job-elastoplastic Model name: Model-1-Copy
** Generated by: Abaqus/CAE 2023
*Preprint, echo=NO, model=NO, history=NO, contact=NO
**
** PARTS
**
*Part, name=Part-1
*Node
      1,   1385.81934,   574.025146,           0.
      2,   1190.03003,   913.142151,           0.
      3,         750.,   1299.03809,           0.
      4,   388.228577,   1448.88879,           0.
      5,  -195.789291,   1487.16724,           0.
      6,  -574.025146,   1385.81934,           0.
      7,  -1060.66016,   1060.66016,           0.
      8,  -1299.03809,         750.,           0.
      9,  -1487.16724,   195.789291,           0.
     10,  -1487.16724,  -195.789291,           0.
     11,  -1299.03809,        -750.,           0.
     12,  -1060.66016,  -1060.66016,           0.
     13,  -574.025146,  -1385.81934,           0.
     14,  -195.789291,  -1487.16724,           0.
     15,   388.228577,  -1448.88879,           0.
     16,         750.,  -1299.03809,           0.
     17,   1190.03003,  -913.142151,           0.
     18,   1385.81934,  -574.025146,           0.
     19,        1500.,           0.,           0.
     20,       -4600.,        2500.,           0.
** ... 7996 like lines cut
*Element, type=C3D8
   1,  472,  430,  357,   39, 1808, 1766, 1693, 1375
   2,  531,  472,   39,   38, 1867, 1808, 1375, 1374
   3,  280,  471,  470,  814, 1616, 1807, 1806, 2150
   4, 1197,  753,  807,  282, 2533, 2089, 2143, 1618
   5,  283, 1197,  282,  747, 1619, 2533, 1618, 2083
   6,  529,  431,  355,   35, 1865, 1767, 1691, 1371
   7, 1196,  633,  594,  280, 2532, 1969, 1930, 1616
   8,  161,    4,  322,  424, 1497, 1340, 1658, 1760
   9, 1179,  685,  734,  161, 2515, 2021, 2070, 1497
  10,  689,  159,  325,    5, 2025, 1495, 1661, 1341
  11,  326,    6,  426,  429, 1662, 1342, 1762, 1765
  12,  413,    8,  328,  423, 1749, 1344, 1664, 1759
  13,  581, 1180,  188,  409, 1917, 2516, 1524, 1745
  14,    9,  735,  196,  331, 1345, 2071, 1532, 1667
  15,  694,  204,  332,   10, 2030, 1540, 1668, 1346
  16,  410,  414,  574,  619, 1746, 1750, 1910, 1955
  17,  414,  418,  841,  574, 1750, 1754, 2177, 1910
  18,  619,  577,  403,  410, 1955, 1913, 1739, 1746
  19,  701,  634,  603,  307, 2037, 1970, 1939, 1643
  20,  432,  556,   87,  383, 1768, 1892, 1423, 1719
** ... 6165 like lines cut
*End Part
*Nset, nset=Set-BC
   51,  100,  101,  102,  103,  104,  105,  106,  107,  108,  109,  110,  111,  112,  113,  114
  115,  391,  392,  393,  394,  395,  396,  397,  398,  399, 1387, 1436, 1437, 1438, 1439, 1440
 1441, 1442, 1443, 1444, 1445, 1446, 1447, 1448, 1449, 1450, 1451, 1727, 1728, 1729, 1730, 1731
 1732, 1733, 1734, 1735, 2723, 2772, 2773, 2774, 2775, 2776, 2777, 2778, 2779, 2780, 2781, 2782
 2783, 2784, 2785, 2786, 2787, 3063, 3064, 3065, 3066, 3067, 3068, 3069, 3070, 3071, 4059, 4108
 4109, 4110, 4111, 4112, 4113, 4114, 4115, 4116, 4117, 4118, 4119, 4120, 4121, 4122, 4123, 4399
 4400, 4401, 4402, 4403, 4404, 4405, 4406, 4407, 5395, 5444, 5445, 5446, 5447, 5448, 5449, 5450
 5451, 5452, 5453, 5454, 5455, 5456, 5457, 5458, 5459, 5735, 5736, 5737, 5738, 5739, 5740, 5741
 5742, 5743, 6731, 6780, 6781, 6782, 6783, 6784, 6785, 6786, 6787, 6788, 6789, 6790, 6791, 6792
 6793, 6794, 6795, 7071, 7072, 7073, 7074, 7075, 7076, 7077, 7078, 7079
*Nset, nset=Set-Fx
   52,   53,   54,   55,   56,   57,   58,   59,   60,   61,   62,   63,   64,   65,   66,   67
   68,  364,  365,  366,  367,  368,  369,  370,  371,  372, 1388, 1389, 1390, 1391, 1392, 1393
 1394, 1395, 1396, 1397, 1398, 1399, 1400, 1401, 1402, 1403, 1404, 1700, 1701, 1702, 1703, 1704
 1705, 1706, 1707, 1708, 2724, 2725, 2726, 2727, 2728, 2729, 2730, 2731, 2732, 2733, 2734, 2735
 2736, 2737, 2738, 2739, 2740, 3036, 3037, 3038, 3039, 3040, 3041, 3042, 3043, 3044, 4060, 4061
 4062, 4063, 4064, 4065, 4066, 4067, 4068, 4069, 4070, 4071, 4072, 4073, 4074, 4075, 4076, 4372
 4373, 4374, 4375, 4376, 4377, 4378, 4379, 4380, 5396, 5397, 5398, 5399, 5400, 5401, 5402, 5403
 5404, 5405, 5406, 5407, 5408, 5409, 5410, 5411, 5412, 5708, 5709, 5710, 5711, 5712, 5713, 5714
 5715, 5716, 6732, 6733, 6734, 6735, 6736, 6737, 6738, 6739, 6740, 6741, 6742, 6743, 6744, 6745
 6746, 6747, 6748, 7044, 7045, 7046, 7047, 7048, 7049, 7050, 7051, 7052
*End Assembly
** 
** MATERIALS
** 
*Material, name=C60_elastoplastic
*Elastic
36000., 0.2
*Plastic
10.,    0.
15., 0.001
** ----------------------------------------------------------------
** 
** STEP: Step-1
** 
*Step, name=Step-1, nlgeom=NO
*Boundary
Set-BC, 1, 0
Set-BC, 2, 0
Set-BC, 3, 0
** 
** LOADS
** 
** Name: Load-1   Type: Concentrated force
*Load
Set-Fx, 1, 100000.
*End Step
